*INCLUDE, INPUT=all.msh

*MATERIAL, Name=EL
*ELASTIC
300000.0, 0.3
*DENSITY
1200.0
*SOLID SECTION, Elset=EVOLUME, Material=EL

*STEP, INC=1000000
*DYNAMIC,DIRECT,NLGEOM
 0.0001,0.01

*RESTART,WRITE,FREQUENCY=1

*BOUNDARY
 NINLET,1,3,0
 NOUTLET,1,3,0

*CLOAD
 NINTERFACE,1,0.0
 NINTERFACE,2,0.0
 NINTERFACE,3,0.0

*NODE FILE
 U
*EL FILE
 S, E
*END STEP
